Circuit: * U:\freqcount\freqcount_v2.0\hf_eingang.asc

Warning: Multiple definitions of model "2scr375p" Type: BJT
Warning: Multiple definitions of model "bc857b" Type: BJT
Warning: Multiple definitions of model "bc847c" Type: BJT
Warning: Multiple definitions of model "bc847b" Type: BJT
WARNING: Less than two connections to node out.  This node is used by a1.
Direct Newton iteration for .op point succeeded.

Date: Wed Sep 13 13:57:26 2023
Total elapsed time: 0.136 seconds.

tnom = 27
temp = 27
method = modified trap
totiter = 2215
traniter = 2210
tranpoints = 1052
accept = 1044
rejected = 8
matrix size = 13
fillins = 0
solver = Normal
Avg thread counts: 1.6/2.2/2.2/1.6
Matrix Compiler1: 754 bytes object code size  0.4/0.5/[0.3]
Matrix Compiler2: 1.00 KB object code size  0.3/0.5/[0.2]

